this is a branch with ubuntu.
hahaha
new line.
 anot  hshsh.



